matpower-plain/case141.m
function mpc = case141
%CASE141  Power flow data for 141 bus distribution system
%   Please see CASEFORMAT for details on the case file format.
%
%   Data from ...
%       H.M. Khodr, F.G. Olsina, P.M. De Oliveira-De Jesus, J.M. Yusta,
%       Maximum savings approach for location and sizing of capacitors in
%       distribution systems, Electric Power Systems Research, Volume 78,
%       Issue 7, July 2008, Pages 1192-1203
%       https://doi.org/10.1016/j.epsr.2007.10.002
%
%   Covers "a zone of the metropolitan area of Caracas" in Venezuela.
%
%   The data in the paper includes numerous typos, including the following
%   which were corrected based on the one-line diagram.
%       - branch 17--10 should be 17--18
%       - branch 16--19 should be 18--19
%       - branch 27--23 should be 27--28
%       - branch 27--26 should be 25--26
%       - branch 67--63 should be 67--68
%       - branch 66--70 should be 55--70
%       - branch 16--137 should be 18--137
%
%   Modifications:
%     v2 - 2020-10-01 (RDZ)
%         - Specify branch parameters in Ohms, loads in kVA.
%         - Added code for explicit conversion of loads from kVA
%           to MVA, then from MVA and power factor to MW and MVAr, and
%           of branch parameters from Ohms to p.u.
%         - Doubled load at bus 53 (100 kVA instead of 50 kVA)
%         - Set BASE_KV to 12.47 kV (instead of 12.5)
%         - Branch order as in paper (rather than sorted by from bus)
%         - Slack bus Vmin = Vmax = 1.0
%         - Gen Qmin, Qmax, Pmax magnitudes set to 100 (instead of 999)
%         - Branch flow limits disabled, i.e. set to 0 (instead of 999)
%         - Add gen cost.
%
%   Plain-data copy of benchmark-grids/matpower/case141.m: the file's
%   MATLAB statements (below, as they were) are evaluated by
%   scripts/evaluate_matpower_code.py and the matrices hold the result.
%     Vbase = mpc.bus(1, BASE_KV) * 1e3;
%     Sbase = mpc.baseMVA * 1e6;
%     mpc.branch(:, [BR_R BR_X]) = mpc.branch(:, [BR_R BR_X]) / (Vbase^2 / Sbase);
%     mpc.bus(:, [PD, QD]) = mpc.bus(:, [PD, QD]) / 1e3;
%     pf = 0.85;
%     mpc.bus(:, QD) = mpc.bus(:, PD) * sin(acos(pf));
%     mpc.bus(:, PD) = mpc.bus(:, PD) * pf;

%% MATPOWER Case Format : Version 2
mpc.version = '2';

mpc.baseMVA = 10;

mpc.bus = [
	1	3	0	0	0	0	1	1	0	12.47	1	1	1;
	2	1	0	0	0	0	1	1	0	12.47	1	1.1	0.9;
	3	1	0	0	0	0	1	1	0	12.47	1	1.1	0.9;
	4	1	0	0	0	0	1	1	0	12.47	1	1.1	0.9;
	5	1	0	0	0	0	1	1	0	12.47	1	1.1	0.9;
	6	1	0	0	0	0	1	1	0	12.47	1	1.1	0.9;
	7	1	0	0	0	0	1	1	0	12.47	1	1.1	0.9;
	8	1	0.06375	0.03950870157319777	0	0	1	1	0	12.47	1	1.1	0.9;
	9	1	0.0085	0.00526782687642637	0	0	1	1	0	12.47	1	1.1	0.9;
	10	1	0	0	0	0	1	1	0	12.47	1	1.1	0.9;
	11	1	0	0	0	0	1	1	0	12.47	1	1.1	0.9;
	12	1	0.02125	0.013169567191065924	0	0	1	1	0	12.47	1	1.1	0.9;
	13	1	0.06375	0.03950870157319777	0	0	1	1	0	12.47	1	1.1	0.9;
	14	1	0	0	0	0	1	1	0	12.47	1	1.1	0.9;
	15	1	0	0	0	0	1	1	0	12.47	1	1.1	0.9;
	16	1	0	0	0	0	1	1	0	12.47	1	1.1	0.9;
	17	1	0.1275	0.07901740314639553	0	0	1	1	0	12.47	1	1.1	0.9;
	18	1	0	0	0	0	1	1	0	12.47	1	1.1	0.9;
	19	1	0	0	0	0	1	1	0	12.47	1	1.1	0.9;
	20	1	0.06375	0.03950870157319777	0	0	1	1	0	12.47	1	1.1	0.9;
	21	1	0.06375	0.03950870157319777	0	0	1	1	0	12.47	1	1.1	0.9;
	22	1	0	0	0	0	1	1	0	12.47	1	1.1	0.9;
	23	1	0.06375	0.03950870157319777	0	0	1	1	0	12.47	1	1.1	0.9;
	24	1	0	0	0	0	1	1	0	12.47	1	1.1	0.9;
	25	1	0	0	0	0	1	1	0	12.47	1	1.1	0.9;
	26	1	0.1275	0.07901740314639553	0	0	1	1	0	12.47	1	1.1	0.9;
	27	1	0.06375	0.03950870157319777	0	0	1	1	0	12.47	1	1.1	0.9;
	28	1	0	0	0	0	1	1	0	12.47	1	1.1	0.9;
	29	1	0.06375	0.03950870157319777	0	0	1	1	0	12.47	1	1.1	0.9;
	30	1	0	0	0	0	1	1	0	12.47	1	1.1	0.9;
	31	1	0	0	0	0	1	1	0	12.47	1	1.1	0.9;
	32	1	0.1275	0.07901740314639553	0	0	1	1	0	12.47	1	1.1	0.9;
	33	1	0	0	0	0	1	1	0	12.47	1	1.1	0.9;
	34	1	0.1275	0.07901740314639553	0	0	1	1	0	12.47	1	1.1	0.9;
	35	1	0.255	0.15803480629279107	0	0	1	1	0	12.47	1	1.1	0.9;
	36	1	0.1275	0.07901740314639553	0	0	1	1	0	12.47	1	1.1	0.9;
	37	1	0.0425	0.026339134382131847	0	0	1	1	0	12.47	1	1.1	0.9;
	38	1	0	0	0	0	1	1	0	12.47	1	1.1	0.9;
	39	1	0.017	0.01053565375285274	0	0	1	1	0	12.47	1	1.1	0.9;
	40	1	0	0	0	0	1	1	0	12.47	1	1.1	0.9;
	41	1	0.06375	0.03950870157319777	0	0	1	1	0	12.47	1	1.1	0.9;
	42	1	0	0	0	0	1	1	0	12.47	1	1.1	0.9;
	43	1	0	0	0	0	1	1	0	12.47	1	1.1	0.9;
	44	1	0.0425	0.026339134382131847	0	0	1	1	0	12.47	1	1.1	0.9;
	45	1	0	0	0	0	1	1	0	12.47	1	1.1	0.9;
	46	1	0	0	0	0	1	1	0	12.47	1	1.1	0.9;
	47	1	0	0	0	0	1	1	0	12.47	1	1.1	0.9;
	48	1	0.10625	0.06584783595532961	0	0	1	1	0	12.47	1	1.1	0.9;
	49	1	0.1275	0.07901740314639553	0	0	1	1	0	12.47	1	1.1	0.9;
	50	1	0	0	0	0	1	1	0	12.47	1	1.1	0.9;
	51	1	0.10625	0.06584783595532961	0	0	1	1	0	12.47	1	1.1	0.9;
	52	1	0.06375	0.03950870157319777	0	0	1	1	0	12.47	1	1.1	0.9;
	53	1	0.085	0.052678268764263694	0	0	1	1	0	12.47	1	1.1	0.9;
	54	1	0	0	0	0	1	1	0	12.47	1	1.1	0.9;
	55	1	0	0	0	0	1	1	0	12.47	1	1.1	0.9;
	56	1	0.02125	0.013169567191065924	0	0	1	1	0	12.47	1	1.1	0.9;
	57	1	0	0	0	0	1	1	0	12.47	1	1.1	0.9;
	58	1	0.255	0.15803480629279107	0	0	1	1	0	12.47	1	1.1	0.9;
	59	1	0.1275	0.07901740314639553	0	0	1	1	0	12.47	1	1.1	0.9;
	60	1	0	0	0	0	1	1	0	12.47	1	1.1	0.9;
	61	1	0.255	0.15803480629279107	0	0	1	1	0	12.47	1	1.1	0.9;
	62	1	0.17	0.10535653752852739	0	0	1	1	0	12.47	1	1.1	0.9;
	63	1	0	0	0	0	1	1	0	12.47	1	1.1	0.9;
	64	1	0.255	0.15803480629279107	0	0	1	1	0	12.47	1	1.1	0.9;
	65	1	0.1275	0.07901740314639553	0	0	1	1	0	12.47	1	1.1	0.9;
	66	1	0.19125	0.11852610471959331	0	0	1	1	0	12.47	1	1.1	0.9;
	67	1	0.0425	0.026339134382131847	0	0	1	1	0	12.47	1	1.1	0.9;
	68	1	0.085	0.052678268764263694	0	0	1	1	0	12.47	1	1.1	0.9;
	69	1	0.255	0.15803480629279107	0	0	1	1	0	12.47	1	1.1	0.9;
	70	1	0	0	0	0	1	1	0	12.47	1	1.1	0.9;
	71	1	0.255	0.15803480629279107	0	0	1	1	0	12.47	1	1.1	0.9;
	72	1	0.1275	0.07901740314639553	0	0	1	1	0	12.47	1	1.1	0.9;
	73	1	0.255	0.15803480629279107	0	0	1	1	0	12.47	1	1.1	0.9;
	74	1	0.255	0.15803480629279107	0	0	1	1	0	12.47	1	1.1	0.9;
	75	1	0.03825	0.02370522094391866	0	0	1	1	0	12.47	1	1.1	0.9;
	76	1	0.06375	0.03950870157319777	0	0	1	1	0	12.47	1	1.1	0.9;
	77	1	0.1275	0.07901740314639553	0	0	1	1	0	12.47	1	1.1	0.9;
	78	1	0	0	0	0	1	1	0	12.47	1	1.1	0.9;
	79	1	0.42712500000000003	0.2647083005404251	0	0	1	1	0	12.47	1	1.1	0.9;
	80	1	0.6375	0.3950870157319777	0	0	1	1	0	12.47	1	1.1	0.9;
	81	1	0	0	0	0	1	1	0	12.47	1	1.1	0.9;
	82	1	0.1275	0.07901740314639553	0	0	1	1	0	12.47	1	1.1	0.9;
	83	1	0.06375	0.03950870157319777	0	0	1	1	0	12.47	1	1.1	0.9;
	84	1	0.19125	0.11852610471959331	0	0	1	1	0	12.47	1	1.1	0.9;
	85	1	0	0	0	0	1	1	0	12.47	1	1.1	0.9;
	86	1	0.425	0.26339134382131846	0	0	1	1	0	12.47	1	1.1	0.9;
	87	1	0.1275	0.07901740314639553	0	0	1	1	0	12.47	1	1.1	0.9;
	88	1	0.06375	0.03950870157319777	0	0	1	1	0	12.47	1	1.1	0.9;
	89	1	0.05525	0.0342408746967714	0	0	1	1	0	12.47	1	1.1	0.9;
	90	1	0	0	0	0	1	1	0	12.47	1	1.1	0.9;
	91	1	0	0	0	0	1	1	0	12.47	1	1.1	0.9;
	92	1	0	0	0	0	1	1	0	12.47	1	1.1	0.9;
	93	1	0	0	0	0	1	1	0	12.47	1	1.1	0.9;
	94	1	0.0935	0.05794609564069006	0	0	1	1	0	12.47	1	1.1	0.9;
	95	1	0	0	0	0	1	1	0	12.47	1	1.1	0.9;
	96	1	0.1275	0.07901740314639553	0	0	1	1	0	12.47	1	1.1	0.9;
	97	1	0	0	0	0	1	1	0	12.47	1	1.1	0.9;
	98	1	0.255	0.15803480629279107	0	0	1	1	0	12.47	1	1.1	0.9;
	99	1	0	0	0	0	1	1	0	12.47	1	1.1	0.9;
	100	1	0.255	0.15803480629279107	0	0	1	1	0	12.47	1	1.1	0.9;
	101	1	0.01275	0.007901740314639553	0	0	1	1	0	12.47	1	1.1	0.9;
	102	1	0	0	0	0	1	1	0	12.47	1	1.1	0.9;
	103	1	0.10625	0.06584783595532961	0	0	1	1	0	12.47	1	1.1	0.9;
	104	1	0	0	0	0	1	1	0	12.47	1	1.1	0.9;
	105	1	0.255	0.15803480629279107	0	0	1	1	0	12.47	1	1.1	0.9;
	106	1	0.1275	0.07901740314639553	0	0	1	1	0	12.47	1	1.1	0.9;
	107	1	0.42712500000000003	0.2647083005404251	0	0	1	1	0	12.47	1	1.1	0.9;
	108	1	0	0	0	0	1	1	0	12.47	1	1.1	0.9;
	109	1	0.6375	0.3950870157319777	0	0	1	1	0	12.47	1	1.1	0.9;
	110	1	0.6375	0.3950870157319777	0	0	1	1	0	12.47	1	1.1	0.9;
	111	1	0.02125	0.013169567191065924	0	0	1	1	0	12.47	1	1.1	0.9;
	112	1	0.425	0.26339134382131846	0	0	1	1	0	12.47	1	1.1	0.9;
	113	1	0.06375	0.03950870157319777	0	0	1	1	0	12.47	1	1.1	0.9;
	114	1	0	0	0	0	1	1	0	12.47	1	1.1	0.9;
	115	1	0	0	0	0	1	1	0	12.47	1	1.1	0.9;
	116	1	0.255	0.15803480629279107	0	0	1	1	0	12.47	1	1.1	0.9;
	117	1	0.05525	0.0342408746967714	0	0	1	1	0	12.47	1	1.1	0.9;
	118	1	0	0	0	0	1	1	0	12.47	1	1.1	0.9;
	119	1	0.0935	0.05794609564069006	0	0	1	1	0	12.47	1	1.1	0.9;
	120	1	0	0	0	0	1	1	0	12.47	1	1.1	0.9;
	121	1	0	0	0	0	1	1	0	12.47	1	1.1	0.9;
	122	1	0	0	0	0	1	1	0	12.47	1	1.1	0.9;
	123	1	0.085	0.052678268764263694	0	0	1	1	0	12.47	1	1.1	0.9;
	124	1	0.10625	0.06584783595532961	0	0	1	1	0	12.47	1	1.1	0.9;
	125	1	0	0	0	0	1	1	0	12.47	1	1.1	0.9;
	126	1	0	0	0	0	1	1	0	12.47	1	1.1	0.9;
	127	1	0.06375	0.03950870157319777	0	0	1	1	0	12.47	1	1.1	0.9;
	128	1	0.06375	0.03950870157319777	0	0	1	1	0	12.47	1	1.1	0.9;
	129	1	0.0935	0.05794609564069006	0	0	1	1	0	12.47	1	1.1	0.9;
	130	1	0.095625	0.059263052359796654	0	0	1	1	0	12.47	1	1.1	0.9;
	131	1	0	0	0	0	1	1	0	12.47	1	1.1	0.9;
	132	1	0.06375	0.03950870157319777	0	0	1	1	0	12.47	1	1.1	0.9;
	133	1	0.03825	0.02370522094391866	0	0	1	1	0	12.47	1	1.1	0.9;
	134	1	0.029750000000000002	0.018437394067492292	0	0	1	1	0	12.47	1	1.1	0.9;
	135	1	0.02125	0.013169567191065924	0	0	1	1	0	12.47	1	1.1	0.9;
	136	1	0.06375	0.03950870157319777	0	0	1	1	0	12.47	1	1.1	0.9;
	137	1	0.04675	0.02897304782034503	0	0	1	1	0	12.47	1	1.1	0.9;
	138	1	0.0425	0.026339134382131847	0	0	1	1	0	12.47	1	1.1	0.9;
	139	1	0.0425	0.026339134382131847	0	0	1	1	0	12.47	1	1.1	0.9;
	140	1	0.1275	0.07901740314639553	0	0	1	1	0	12.47	1	1.1	0.9;
	141	1	0.06375	0.03950870157319777	0	0	1	1	0	12.47	1	1.1	0.9;
];

mpc.gen = [
	1	0	0	100	-100	1	100	1	100	0	0	0	0	0	0	0	0	0	0	0	0;
];

mpc.branch = [
	1	2	0.0037105894563954286	0.0026302098573062916	0	0	0	0	0	0	1	-360	360;
	2	3	0.01109318338350453	0.00786490624813104	0	0	0	0	0	0	1	-360	360;
	3	4	5.7877478522632335e-05	3.858498568175489e-05	0	0	0	0	0	0	1	-360	360;
	4	5	0.0005916364471202416	0.0004180040115523446	0	0	0	0	0	0	1	-360	360;
	5	6	0.00043729650439322206	0.00031511071640099827	0	0	0	0	0	0	1	-360	360;
	6	7	0.0030160597141238405	0.004019269341849468	0	0	0	0	0	0	1	-360	360;
	7	8	0.004733091576961933	0.0063086451589669254	0	0	0	0	0	0	1	-360	360;
	8	9	0.004173609284576487	0.002951751404654249	0	0	0	0	0	0	1	-360	360;
	9	10	0.0032604312901082884	0.0023086683099583344	0	0	0	0	0	0	1	-360	360;
	10	11	0.0007459763898472612	0.0005273281376506502	0	0	0	0	0	0	1	-360	360;
	11	12	0.00830220275252426	0.005871348654573703	0	0	0	0	0	0	1	-360	360;
	12	13	0.007890629571918875	0.005569099600066622	0	0	0	0	0	0	1	-360	360;
	13	14	0.0031382455021160644	0.002218636676700906	0	0	0	0	0	0	1	-360	360;
	14	15	0.006154305216239905	0.004353672551091343	0	0	0	0	0	0	1	-360	360;
	15	16	0.005530514614384867	0.003916376046698122	0	0	0	0	0	0	1	-360	360;
	16	17	0.002559470716889741	0.0018134943270424798	0	0	0	0	0	0	1	-360	360;
	17	18	0.0053247280240821745	0.003639850315978878	0	0	0	0	0	0	1	-360	360;
	18	19	0.0011961345561344015	0.0008488696849986076	0	0	0	0	0	0	1	-360	360;
	19	20	0.003594834499350164	0.002540178224048864	0	0	0	0	0	0	1	-360	360;
	20	21	0.002347253295640089	0.0015819844129519505	0	0	0	0	0	0	1	-360	360;
	21	22	0.0036848661326075918	0.001974265100716459	0	0	0	0	0	0	1	-360	360;
	22	23	0.0016913085390502561	0.0012282887108691974	0	0	0	0	0	0	1	-360	360;
	23	24	0.004392257536773098	0.003196122980638697	0	0	0	0	0	0	1	-360	360;
	24	25	0.002559470716889741	0.0018134943270424798	0	0	0	0	0	0	1	-360	360;
	25	26	0.00468807576033322	0.0034083404018883487	0	0	0	0	0	0	1	-360	360;
	26	27	0.002154328367231315	0.0015691227510580322	0	0	0	0	0	0	1	-360	360;
	27	28	0.0037556052730241428	0.0026623640120410873	0	0	0	0	0	0	1	-360	360;
	28	29	0.004212194270258243	0.0029774747284420857	0	0	0	0	0	0	1	-360	360;
	61	62	0.00264307151920021	0.0018713718055651122	0	0	0	0	0	0	1	-360	360;
	60	63	0.002270083324276579	0.0016077077367397871	0	0	0	0	0	0	1	-360	360;
	63	64	0.006733080001466229	0.004765245731696729	0	0	0	0	0	0	1	-360	360;
	64	65	0.004334380058250467	0.003067506361699514	0	0	0	0	0	0	1	-360	360;
	65	66	0.001942110945981663	0.0013761978226492578	0	0	0	0	0	0	1	-360	360;
	66	67	0.002932458911813372	0.002077158395867805	0	0	0	0	0	0	1	-360	360;
	67	68	0.0014019211464370944	0.0009903479658317088	0	0	0	0	0	0	1	-360	360;
	70	72	0.004501581662871405	0.0031832613187447786	0	0	0	0	0	0	1	-360	360;
	42	73	0.0014855219487475632	0.0010546562753013004	0	0	0	0	0	0	1	-360	360;
	73	74	0.00019292492840877447	0.0004115731806053855	0	0	0	0	0	0	1	-360	360;
	43	75	0.0024372849288975176	0.0017234626937850518	0	0	0	0	0	0	1	-360	360;
	44	76	0.00354981868272145	0.0025144549002610274	0	0	0	0	0	0	1	-360	360;
	46	77	0.0033183087686309205	0.002803842292874189	0	0	0	0	0	0	1	-360	360;
	76	78	0.0010739487681421778	0.0007073914041655063	0	0	0	0	0	0	1	-360	360;
	78	79	0.002668794842988047	0.000649513925642874	0	0	0	0	0	0	1	-360	360;
	79	80	0.006450123439800026	0.0015691227510580322	0	0	0	0	0	0	1	-360	360;
	79	81	0.00972984722274919	0.002379407450374885	0	0	0	0	0	0	1	-360	360;
	81	82	0.0002122174212496519	5.144664757567319e-05	0	0	0	0	0	0	1	-360	360;
	47	83	0.0005466206304915276	0.00039871151871146717	0	0	0	0	0	0	1	-360	360;
	49	84	0.00332473959957788	0.002887443095184658	0	0	0	0	0	0	1	-360	360;
	50	85	0.0009453321492029948	0.00023150991409052934	0	0	0	0	0	0	1	-360	360;
	85	86	0.0002379407450374885	0.00010289329515134638	0	0	0	0	0	0	1	-360	360;
	86	87	0	6.430830946959149e-07	0	0	0	0	0	0	1	-360	360;
	7	88	0.0011189645847708917	0.0014855219487475632	0	0	0	0	0	0	1	-360	360;
	88	89	0.0030160597141238405	0.004019269341849468	0	0	0	0	0	0	1	-360	360;
	89	90	0.0019228184531407853	0.002559470716889741	0	0	0	0	0	0	1	-360	360;
	90	91	0.0013633361607553395	0.001819925157989439	0	0	0	0	0	0	1	-360	360;
	91	92	0.0020257117482921317	0.0027009489977228426	0	0	0	0	0	0	1	-360	360;
	92	93	0.0018006326651485616	0.0023986999432157622	0	0	0	0	0	0	1	-360	360;
	93	94	0.0013247511750735846	0.0017620476794668067	0	0	0	0	0	0	1	-360	360;
	94	95	0.0013247511750735846	0.0017620476794668067	0	0	0	0	0	0	1	-360	360;
	89	96	0.004417980860560935	0.003125383840222146	0	0	0	0	0	0	1	-360	360;
	96	97	0.0062379060185503744	0.0044115500296139755	0	0	0	0	0	0	1	-360	360;
	97	98	0.005800609514157152	0.001260442865603993	0	0	0	0	0	0	1	-360	360;
	97	99	0.0002122174212496519	5.144664757567319e-05	0	0	0	0	0	0	1	-360	360;
	131	132	0.0022314983385948246	0.0015755535820049914	0	0	0	0	0	0	1	-360	360;
	131	133	0.005916364471202417	0.00430222590351567	0	0	0	0	0	0	1	-360	360;
	121	134	0.005408328826392643	0.003935668539538998	0	0	0	0	0	0	1	-360	360;
	16	135	0.003389047909047471	0.0023986999432157622	0	0	0	0	0	0	1	-360	360;
	16	136	0.001942110945981663	0.0013761978226492578	0	0	0	0	0	0	1	-360	360;
	18	137	0.0037556052730241428	0.0026623640120410873	0	0	0	0	0	0	1	-360	360;
	23	138	0.004945308998211585	0.003594834499350164	0	0	0	0	0	0	1	-360	360;
	29	30	0.002199344183860029	0.0015948460748458687	0	0	0	0	0	0	1	-360	360;
	30	31	0.000823146361210771	0.0005852056161732825	0	0	0	0	0	0	1	-360	360;
	31	32	0.0022314983385948246	0.0015755535820049914	0	0	0	0	0	0	1	-360	360;
	2	33	0.0028488581095029025	0.0020192809173451725	0	0	0	0	0	0	1	-360	360;
	33	34	0.00012861661893918296	5.7877478522632335e-05	0	0	0	0	0	0	1	-360	360;
	5	35	0.014623709573385104	0.0035626803446153683	0	0	0	0	0	0	1	-360	360;
	5	36	0.008135001147903323	0.010064250431991068	0	0	0	0	0	0	1	-360	360;
	6	37	0.00035369570208275316	0.00046945065912801784	0	0	0	0	0	0	1	-360	360;
	37	38	0.013093171808008827	0.009260396563621173	0	0	0	0	0	0	1	-360	360;
	38	39	0.006032119428247681	0.004263640917833916	0	0	0	0	0	0	1	-360	360;
	39	40	0.0022314983385948246	0.0015755535820049914	0	0	0	0	0	0	1	-360	360;
	40	41	0.005903502809308498	0.004180040115523447	0	0	0	0	0	0	1	-360	360;
	41	42	0.014906666135051306	0.010546562753013003	0	0	0	0	0	0	1	-360	360;
	42	43	0.007762012952979692	0.0054919296287031134	0	0	0	0	0	0	1	-360	360;
	43	44	0.0028488581095029025	0.0020192809173451725	0	0	0	0	0	0	1	-360	360;
	44	45	0.002604486533518455	0.0018520793127242347	0	0	0	0	0	0	1	-360	360;
	45	46	0.0010289329515134637	0.0008167155302638118	0	0	0	0	0	0	1	-360	360;
	46	47	0.004090008482266019	0.0028938739261316166	0	0	0	0	0	0	1	-360	360;
	47	48	0.002681656504881965	0.0018970951293529486	0	0	0	0	0	0	1	-360	360;
	48	49	0.004707368253174097	0.0032797237829491656	0	0	0	0	0	0	1	-360	360;
	49	50	0.0053247280240821745	0.0035755420065092863	0	0	0	0	0	0	1	-360	360;
	50	51	0.002559470716889741	0.0018134943270424798	0	0	0	0	0	0	1	-360	360;
	51	52	0.0014469369630658083	0.0010225021205665047	0	0	0	0	0	0	1	-360	360;
	38	53	0.005408328826392643	0.0038263444134406933	0	0	0	0	0	0	1	-360	360;
	42	54	0.001035363782460423	0.000733114727953343	0	0	0	0	0	0	1	-360	360;
	54	55	0.003389047909047471	0.0023986999432157622	0	0	0	0	0	0	1	-360	360;
	55	56	0.00574273203563452	0.004064285158478182	0	0	0	0	0	0	1	-360	360;
	56	57	0.005575530431013582	0.003942099370485958	0	0	0	0	0	0	1	-360	360;
	57	58	0.004334380058250467	0.003067506361699514	0	0	0	0	0	0	1	-360	360;
	58	59	0.0030160597141238405	0.002135035874390437	0	0	0	0	0	0	1	-360	360;
	55	60	0.0021478975362843556	0.001517676103482359	0	0	0	0	0	0	1	-360	360;
	60	61	0.0021028817196556415	0.0014919527796945224	0	0	0	0	0	0	1	-360	360;
	63	69	0.0023536841265870486	0.0016655852152624195	0	0	0	0	0	0	1	-360	360;
	55	70	0.0014855219487475632	0.0010546562753013004	0	0	0	0	0	0	1	-360	360;
	70	71	0.0007716997136350979	0.0001864940974618153	0	0	0	0	0	0	1	-360	360;
	99	100	0.0002122174212496519	5.144664757567319e-05	0	0	0	0	0	0	1	-360	360;
	91	101	0.0014855219487475632	0.0010546562753013004	0	0	0	0	0	0	1	-360	360;
	101	102	0.0037170202873423874	0.0026302098573062916	0	0	0	0	0	0	1	-360	360;
	102	103	0.005717008711846683	0.0013954903154901352	0	0	0	0	0	0	1	-360	360;
	103	104	0.004044992665637304	0.0009839171348847496	0	0	0	0	0	0	1	-360	360;
	104	105	0.007524072207942204	0.0018327868198833575	0	0	0	0	0	0	1	-360	360;
	104	106	0.000733114727953343	0.00016720160462093786	0	0	0	0	0	0	1	-360	360;
	92	107	0.005459775473968317	0.0013311820060205436	0	0	0	0	0	0	1	-360	360;
	94	108	0.003935668539538998	0.0016720160462093785	0	0	0	0	0	0	1	-360	360;
	108	109	0.002906735588025535	0.0012347195418161564	0	0	0	0	0	0	1	-360	360;
	94	110	0.0002122174212496519	5.144664757567319e-05	0	0	0	0	0	0	1	-360	360;
	7	111	0.0046237674508636285	0.003273292952002207	0	0	0	0	0	0	1	-360	360;
	10	112	0.006880989113246289	0.001678446877156338	0	0	0	0	0	0	1	-360	360;
	11	113	0.0022314983385948246	0.0015755535820049914	0	0	0	0	0	0	1	-360	360;
	13	114	0.004006407679955549	0.0028359964476089845	0	0	0	0	0	0	1	-360	360;
	114	115	0.004295795072568711	0.0030417830379116774	0	0	0	0	0	0	1	-360	360;
	115	116	0.0002572332378783659	6.430830946959148e-05	0	0	0	0	0	0	1	-360	360;
	14	117	0.003254000459161329	0.0023536841265870486	0	0	0	0	0	0	1	-360	360;
	15	118	0.001035363782460423	0.000733114727953343	0	0	0	0	0	0	1	-360	360;
	118	119	0.0029710438974951264	0.0021028817196556415	0	0	0	0	0	0	1	-360	360;
	119	120	0.002726672321510679	0.0019292492840877445	0	0	0	0	0	0	1	-360	360;
	120	121	0.0032604312901082884	0.0023086683099583344	0	0	0	0	0	0	1	-360	360;
	121	122	0.004707368253174097	0.003331170430524839	0	0	0	0	0	0	1	-360	360;
	122	123	0.0037556052730241428	0.0026623640120410873	0	0	0	0	0	0	1	-360	360;
	123	124	0.003922806877645081	0.0027781189690863524	0	0	0	0	0	0	1	-360	360;
	124	125	0.005035340631469013	0.0035626803446153683	0	0	0	0	0	0	1	-360	360;
	125	126	0.00536331300976393	0.003903514384804203	0	0	0	0	0	0	1	-360	360;
	126	127	0.0022314983385948246	0.0015755535820049914	0	0	0	0	0	0	1	-360	360;
	127	128	0.003665573639766715	0.0027009489977228426	0	0	0	0	0	0	1	-360	360;
	128	129	0.003762036103971102	0.0027331031524576383	0	0	0	0	0	0	1	-360	360;
	129	130	0.0006623755875367923	0.00046945065912801784	0	0	0	0	0	0	1	-360	360;
	119	131	0.0022829449861704976	0.0016270002295806646	0	0	0	0	0	0	1	-360	360;
	25	139	0.006109289399611191	0.004327949227303507	0	0	0	0	0	0	1	-360	360;
	30	140	0.003337601261471798	0.0024244232670035987	0	0	0	0	0	0	1	-360	360;
	31	141	0.0037556052730241428	0.0026623640120410873	0	0	0	0	0	0	1	-360	360;
];

mpc.gencost = [
	2	0	0	3	0	20	0;
];
